
**** 01/11/18 22:22:32 ********* PSpice 9.2 (Mar 2000) ******** ID# 1 ********

 ** Profile: "SCHEMATIC1-RC"  [ D:\rc-SCHEMATIC1-RC.sim ] 


 ****     CIRCUIT DESCRIPTION


******************************************************************************




** Creating circuit file "rc-SCHEMATIC1-RC.sim.cir" 
** WARNING: THIS AUTOMATICALLY GENERATED FILE MAY BE OVERWRITTEN BY SUBSEQUENT SIMULATIONS

*Libraries: 
* Local Libraries :
* From [PSPICE NETLIST] section of C:\Program Files\Orcad\PSpice\PSpice.ini file:
.lib "nom.lib" 

*Analysis directives: 
.AC DEC 2 0 1
----------$
ERROR -- Invalid value
.PROBE V(*) I(*) W(*) D(*) NOISE(*) 
.INC ".\rc-SCHEMATIC1.net" 



**** INCLUDING rc-SCHEMATIC1.net ****
* source RC
C_C1         N00564 N00600  2.2n  
I_I1         0 N00564 DC 4m  
V_V1         N000250 N00600 12
R_R1         0 N00564  2.2k  
R_R2         N000250 0  8.2k  

**** RESUMING rc-SCHEMATIC1-RC.sim.cir ****
.END
