
**** 01/11/18 21:29:37 ********* PSpice 9.2 (Mar 2000) ******** ID# 1 ********

 ** Profile: "SCHEMATIC1-new"  [ D:\new-SCHEMATIC1-new.sim ] 


 ****     CIRCUIT DESCRIPTION


******************************************************************************




** Creating circuit file "new-SCHEMATIC1-new.sim.cir" 
** WARNING: THIS AUTOMATICALLY GENERATED FILE MAY BE OVERWRITTEN BY SUBSEQUENT SIMULATIONS

*Libraries: 
* Local Libraries :
* From [PSPICE NETLIST] section of C:\Program Files\Orcad\PSpice\PSpice.ini file:
.lib "nom.lib" 

*Analysis directives: 
.PROBE V(*) I(*) W(*) D(*) NOISE(*) 
.INC ".\new-SCHEMATIC1.net" 



**** INCLUDING new-SCHEMATIC1.net ****
* source NEW
R_R10         N02824 N02071  1.2k  
R_R11         N01765 N02870  2.2k  
R_R12         N02071 N02870  3.3k  
V_V2         N02824 N01765 8
I_I2         N01765 N02870 DC 5m  
R_R9         N01765 N02071  4.7k  

**** RESUMING new-SCHEMATIC1-new.sim.cir ****
.END

ERROR -- Node N02824 is floating
ERROR -- Node N02071 is floating
ERROR -- Node N01765 is floating
ERROR -- Node N02870 is floating